v3/g7_confirmatory/artifacts/m23_system_identification_seed6101_attempt1/benign/Current_Dump_NR.csv
# Current_Dump_NR.csv run at 2013-08-28 04:00:00 PST on 804 links
link_name,currA_real,currA_imag,currB_real,currB_imag,currC_real,currC_imag
substation_transformer,8.291462,-2.150108,-5.775458,-4.725766,-1.803350,6.963515
linobj12,0.000000,0.000000,-42.888640,-71.961304,0.000000,0.000000
linobj13,0.000000,0.000000,0.000000,0.000000,-42.775987,81.477477
linobj17,460.872312,-119.468436,-280.860739,-192.946505,-58.312695,308.869677
linobj34,0.000000,0.000000,0.000000,0.000000,-1.036745,3.917813
linobj35,0.000000,0.000000,0.000000,0.000000,-41.739242,77.559665
linobj56,0.000000,0.000000,0.000000,0.000000,-1.022128,3.909220
linobj78,458.907712,-118.904290,-280.860739,-192.946505,-58.312695,308.869677
linobj812,0.000000,0.000000,-1.472385,-1.433567,0.000000,0.000000
linobj89,9.966553,-2.841945,0.000000,0.000000,0.000000,0.000000
linobj813,448.941159,-116.062345,-279.388353,-191.512939,-58.312695,308.869677
linobj140114,5.955439,-1.706095,0.000000,0.000000,0.000000,0.000000
linobj1334,0.000000,0.000000,0.000000,0.000000,-2.500280,9.758539
linobj1318,155.022611,-36.235905,-137.879927,-68.587497,-7.861362,110.759258
linobj1411,3.954802,-1.120574,0.000000,0.000000,0.000000,0.000000
linobj1410,2.000637,-0.585520,0.000000,0.000000,0.000000,0.000000
linobj1516,0.000000,0.000000,0.000000,0.000000,-1.003602,3.890036
linobj1517,0.000000,0.000000,0.000000,0.000000,-0.492172,1.977547
linobj1819,7.621976,-2.265048,0.000000,0.000000,0.000000,0.000000
linobj1821,11.621163,-3.462476,-2.874385,-2.809273,-2.989882,11.873793
linobj1920,3.810445,-1.132582,0.000000,0.000000,0.000000,0.000000
linobj2122,0.000000,0.000000,-2.874385,-2.809273,0.000000,0.000000
linobj2123,11.621163,-3.462476,0.000000,0.000000,-2.989882,11.873793
linobj2324,0.000000,0.000000,0.000000,0.000000,-0.987343,3.871590
linobj2325,11.621163,-3.462476,0.000000,0.000000,-2.002540,8.002202
linobj260126,3.902493,-1.163253,0.000000,0.000000,-0.990932,4.031248
linobj2528,7.621107,-2.270142,0.000000,0.000000,-0.986834,3.870173
linobj2627,3.902493,-1.163253,0.000000,0.000000,0.000000,0.000000
linobj2631,0.000000,0.000000,0.000000,0.000000,-0.990932,4.031248
linobj2733,3.902493,-1.163253,0.000000,0.000000,0.000000,0.000000
linobj2829,3.810695,-1.135275,0.000000,0.000000,-0.986834,3.870173
linobj2930,0.000000,0.000000,0.000000,0.000000,-0.986834,3.870173
linobj30250,0.000000,0.000000,0.000000,0.000000,0.000000,0.000000
linobj3132,0.000000,0.000000,0.000000,0.000000,-0.495445,2.015686
linobj3415,0.000000,0.000000,0.000000,0.000000,-1.495774,5.867582
linobj3536,3.801733,-1.139402,-2.936567,-2.812450,0.000000,0.000000
linobj3540,89.382577,-47.103590,-89.473813,-45.231164,-4.871480,98.885465
linobj3637,3.801733,-1.139402,0.000000,0.000000,0.000000,0.000000
linobj3638,0.000000,0.000000,-2.936567,-2.812450,0.000000,0.000000
linobj3839,0.000000,0.000000,-1.468346,-1.406232,0.000000,0.000000
linobj4041,0.000000,0.000000,0.000000,0.000000,-0.478793,1.965822
linobj4042,89.382577,-47.103590,-89.473813,-45.231164,-4.392687,96.919643
linobj4243,0.000000,0.000000,-2.867754,-2.787695,0.000000,0.000000
linobj4244,87.463962,-46.507732,-86.606059,-42.443469,-4.392687,96.919643
linobj4445,3.831982,-1.193032,0.000000,0.000000,0.000000,0.000000
linobj4447,83.631980,-45.314700,-86.606059,-42.443469,-4.392687,96.919643
linobj4546,1.915936,-0.596544,0.000000,0.000000,0.000000,0.000000
linobj4748,28.053772,-21.711323,-32.940963,-14.142157,4.276450,35.448772
linobj4749,41.414356,-12.644803,-37.210061,-21.234683,-10.810997,43.691135
linobj4950,1.912856,-0.597902,0.000000,0.000000,-0.961054,3.858276
linobj5051,1.912856,-0.597902,0.000000,0.000000,0.000000,0.000000
linobj51151,0.000000,0.000000,0.000000,0.000000,0.000000,0.000000
linobj5253,290.113370,-78.694828,-141.508426,-122.925441,-47.951053,188.351880
linobj5354,286.321739,-77.553944,-141.508426,-122.925441,-47.951053,188.351880
linobj5455,1.913525,-0.598035,-1.478154,-1.416992,0.000000,0.000000
linobj5457,284.408214,-76.955909,-140.030272,-121.508450,-47.951053,188.351880
linobj5556,0.000000,0.000000,-1.478154,-1.416992,0.000000,0.000000
linobj5758,0.000000,0.000000,-2.957153,-2.821369,0.000000,0.000000
linobj5760,284.408214,-76.955909,-137.073119,-118.687081,-47.951053,188.351880
linobj5859,0.000000,0.000000,-1.478672,-1.410743,0.000000,0.000000
linobj6061,0.000000,0.000000,0.000000,0.000000,0.000000,0.000000
linobj6062,21.442931,-21.513924,-21.576051,-12.027821,-4.162955,38.085901
linobj6263,21.442931,-21.513924,-21.576051,-12.027821,-3.209790,34.243536
linobj6364,17.729302,-20.314724,-21.576051,-12.027821,-3.209790,34.243536
linobj6465,17.729302,-20.314724,-16.293056,-6.906243,-3.209790,34.243536
linobj6566,0.000000,0.000000,0.000000,0.000000,-1.773544,7.022569
linobj6768,11.399648,-3.800758,0.000000,0.000000,0.000000,0.000000
linobj6772,137.280995,-35.938002,-60.234684,-26.838517,-39.323681,132.821944
linobj6797,106.037286,-13.740133,-52.445383,-77.219298,-3.396415,13.779011
linobj6869,9.484011,-3.150467,0.000000,0.000000,0.000000,0.000000
linobj6970,5.698206,-1.900711,0.000000,0.000000,0.000000,0.000000
linobj7071,3.784050,-1.250150,0.000000,0.000000,0.000000,0.000000
linobj7273,0.000000,0.000000,0.000000,0.000000,-2.876102,11.761368
linobj7276,137.280995,-35.938002,-60.234684,-26.838517,-36.447578,121.060576
linobj7374,0.000000,0.000000,0.000000,0.000000,-1.916532,7.840317
linobj7475,0.000000,0.000000,0.000000,0.000000,-0.958154,3.920500
linobj7677,7.556180,-2.528374,-5.925695,-5.676998,-1.881509,7.896086
linobj7686,90.843712,-8.938021,-10.440979,-9.976663,-39.552977,77.508027
linobj7778,7.556180,-2.528374,-2.962758,-2.838329,-1.881509,7.896086
linobj7879,3.777918,-1.263664,0.000000,0.000000,0.000000,0.000000
linobj7880,3.778263,-1.264710,-2.962758,-2.838329,-1.881509,7.896086
linobj8081,3.778263,-1.264710,0.000000,0.000000,-1.881509,7.896086
linobj8182,3.778263,-1.264710,0.000000,0.000000,-0.465980,1.990904
linobj8184,0.000000,0.000000,0.000000,0.000000,-1.415528,5.905182
linobj8283,0.000000,0.000000,0.000000,0.000000,-0.465980,1.990904
linobj8485,0.000000,0.000000,0.000000,0.000000,-0.950342,3.915164
linobj8687,90.843712,-8.938021,-8.928108,-8.548069,-39.552977,77.508027
linobj8788,87.070148,-7.646449,0.000000,0.000000,0.000000,0.000000
linobj8789,3.773564,-1.291572,-5.971662,-5.703291,-39.552977,77.508027
linobj8990,0.000000,0.000000,-2.953364,-2.844238,0.000000,0.000000
linobj8991,3.773564,-1.291572,-3.018298,-2.859053,-39.552977,77.508027
linobj9192,0.000000,0.000000,0.000000,0.000000,-39.552977,77.508027
linobj9193,3.773564,-1.291572,-3.018298,-2.859053,0.000000,0.000000
linobj9394,3.773564,-1.291572,0.000000,0.000000,0.000000,0.000000
linobj9395,0.000000,0.000000,-3.018298,-2.859053,0.000000,0.000000
linobj9596,0.000000,0.000000,-1.509183,-1.429524,0.000000,0.000000
linobj9798,3.782430,-1.253728,-2.972307,-2.834994,-0.971934,3.929253
linobj9899,0.000000,0.000000,-2.972307,-2.834994,-0.971934,3.929253
linobj99100,0.000000,0.000000,0.000000,0.000000,-0.971934,3.929253
linobj100450,0.000000,0.000000,0.000000,0.000000,0.000000,0.000000
linobj101102,0.000000,0.000000,0.000000,0.000000,-2.424482,9.849758
linobj101105,102.254856,-12.486405,-49.473076,-74.384304,0.000000,0.000000
linobj102103,0.000000,0.000000,0.000000,0.000000,-1.947067,7.853176
linobj103104,0.000000,0.000000,0.000000,0.000000,-0.973039,3.926288
linobj105106,0.000000,0.000000,-49.473076,-74.384304,0.000000,0.000000
linobj105108,102.254856,-12.486405,0.000000,0.000000,0.000000,0.000000
linobj106107,0.000000,0.000000,-46.490977,-71.571231,0.000000,0.000000
linobj108109,102.254856,-12.486405,0.000000,0.000000,0.000000,0.000000
linobj108300,0.000000,0.000000,0.000000,0.000000,0.000000,0.000000
linobj109110,98.522260,-11.204749,0.000000,0.000000,0.000000,0.000000
linobj110111,1.879053,-0.670078,0.000000,0.000000,0.000000,0.000000
linobj110112,96.643208,-10.534671,0.000000,0.000000,0.000000,0.000000
linobj112113,94.766997,-9.863115,0.000000,0.000000,0.000000,0.000000
linobj113114,91.082261,-8.558123,0.000000,0.000000,0.000000,0.000000
linobj13535,135.779473,-30.508381,-135.005542,-65.778225,-4.871480,98.885465
linobj1491,464.786645,-120.526549,-323.749379,-264.907810,-101.088682,390.347154
linobj15252,293.918547,-79.826440,-141.508426,-122.925441,-47.951053,188.351880
linobj670167,254.717930,-53.478893,-112.680067,-104.057814,-42.720096,146.600955
linobj197101,102.254856,-12.486405,-49.473076,-74.384304,-2.424482,9.849758
triplex_l1,3.914334,-1.058113,0.000000,0.000000,0.000000,0.000000
l1_tpn_tm,38.761469,-10.094004,-38.761469,10.094004,0.000000,0.000000
triplex_l2,0.000000,0.000000,-1.470417,-1.441736,0.000000,0.000000
l2_tpn_tm,-14.079878,-14.318645,14.079878,14.318645,0.000000,0.000000
triplex_l4,0.000000,0.000000,0.000000,0.000000,-1.036745,3.917813
l4_tpn_tm,-10.598791,38.604312,10.598791,-38.604312,0.000000,0.000000
triplex_l5,0.000000,0.000000,0.000000,0.000000,-0.501499,1.987324
l5_tpn_tm,-5.243359,19.287129,5.243359,-19.287129,0.000000,0.000000
triplex_l6,0.000000,0.000000,0.000000,0.000000,-1.022128,3.909220
l6_tpn_tm,-10.453602,38.520810,10.453602,-38.520810,0.000000,0.000000
triplex_l7,1.964600,-0.564146,0.000000,0.000000,0.000000,0.000000
l7_tpn_tm,19.255251,-5.150718,-19.255251,5.150718,0.000000,0.000000
triplex_l9,3.862228,-1.093198,0.000000,0.000000,0.000000,0.000000
l9_tpn_tm,38.250119,-10.445472,-38.250119,10.445472,0.000000,0.000000
triplex_l10,2.000637,-0.585520,0.000000,0.000000,0.000000,0.000000
l10_tpn_tm,19.610284,-5.352546,-19.610284,5.352546,0.000000,0.000000
triplex_l11,3.954802,-1.120574,0.000000,0.000000,0.000000,0.000000
l11_tpn_tm,39.166846,-10.707191,-39.166846,10.707191,0.000000,0.000000
triplex_l12,0.000000,0.000000,-1.472385,-1.433567,0.000000,0.000000
l12_tpn_tm,-14.100622,-14.239366,14.100622,14.239366,0.000000,0.000000
triplex_l16,0.000000,0.000000,0.000000,0.000000,-1.003602,3.890036
l16_tpn_tm,-10.268829,38.333082,10.268829,-38.333082,0.000000,0.000000
triplex_l17,0.000000,0.000000,0.000000,0.000000,-0.492172,1.977547
l17_tpn_tm,-5.150642,19.193561,5.150642,-19.193561,0.000000,0.000000
triplex_l19,3.811531,-1.132466,0.000000,0.000000,0.000000,0.000000
l19_tpn_tm,37.752957,-10.838022,-37.752957,10.838022,0.000000,0.000000
triplex_l20,3.810445,-1.132582,0.000000,0.000000,0.000000,0.000000
l20_tpn_tm,37.742199,-10.839230,-37.742199,10.839230,0.000000,0.000000
triplex_l22,0.000000,0.000000,-2.874385,-2.809273,0.000000,0.000000
l22_tpn_tm,-28.135671,-28.011963,28.135671,28.011963,0.000000,0.000000
triplex_l24,0.000000,0.000000,0.000000,0.000000,-0.987343,3.871590
l24_tpn_tm,-10.106493,38.152509,10.106493,-38.152509,0.000000,0.000000
triplex_l28,3.810413,-1.134867,0.000000,0.000000,0.000000,0.000000
l28_tpn_tm,37.742088,-10.861802,-37.742088,10.861802,0.000000,0.000000
triplex_l29,3.810695,-1.135275,0.000000,0.000000,0.000000,0.000000
l29_tpn_tm,37.744962,-10.865856,-37.744962,10.865856,0.000000,0.000000
triplex_l30,0.000000,0.000000,0.000000,0.000000,-0.986834,3.870173
l30_tpn_tm,-10.101383,38.138420,10.101383,-38.138420,0.000000,0.000000
triplex_l31,0.000000,0.000000,0.000000,0.000000,-0.495487,2.015562
l31_tpn_tm,-5.189827,19.563350,5.189827,-19.563350,0.000000,0.000000
triplex_l32,0.000000,0.000000,0.000000,0.000000,-0.495445,2.015686
l32_tpn_tm,-5.189410,19.564654,5.189410,-19.564654,0.000000,0.000000
triplex_l33,3.902493,-1.163253,0.000000,0.000000,0.000000,0.000000
l33_tpn_tm,38.654047,-11.133544,-38.654047,11.133544,0.000000,0.000000
triplex_l34,0.000000,0.000000,0.000000,0.000000,-1.004506,3.890957
l34_tpn_tm,-10.277842,38.342104,10.277842,-38.342104,0.000000,0.000000
triplex_l37,3.801733,-1.139402,0.000000,0.000000,0.000000,0.000000
l37_tpn_tm,37.656807,-10.907432,-37.656807,10.907432,0.000000,0.000000
triplex_l38,0.000000,0.000000,-1.468221,-1.406218,0.000000,0.000000
l38_tpn_tm,-14.064915,-13.971976,14.064915,13.971976,0.000000,0.000000
triplex_l39,0.000000,0.000000,-1.468346,-1.406232,0.000000,0.000000
l39_tpn_tm,-14.066213,-13.972148,14.066213,13.972148,0.000000,0.000000
triplex_l41,0.000000,0.000000,0.000000,0.000000,-0.478793,1.965822
l41_tpn_tm,-5.018080,19.081732,5.018080,-19.081732,0.000000,0.000000
triplex_l42,1.918614,-0.595857,0.000000,0.000000,0.000000,0.000000
l42_tpn_tm,18.812755,-5.468346,-18.812755,5.468346,0.000000,0.000000
triplex_l43,0.000000,0.000000,-2.867754,-2.787695,0.000000,0.000000
l43_tpn_tm,-28.072158,-27.798218,28.072158,27.798218,0.000000,0.000000
triplex_l45,1.916046,-0.596489,0.000000,0.000000,0.000000,0.000000
l45_tpn_tm,18.787787,-5.474915,-18.787787,5.474915,0.000000,0.000000
triplex_l46,1.915936,-0.596544,0.000000,0.000000,0.000000,0.000000
l46_tpn_tm,18.786738,-5.475486,-18.786738,5.475486,0.000000,0.000000
triplex_l50,0.000000,0.000000,0.000000,0.000000,-0.961054,3.858276
l50_tpn_tm,-9.845601,38.023370,9.845601,-38.023370,0.000000,0.000000
triplex_l51,1.912856,-0.597902,0.000000,0.000000,0.000000,0.000000
l51_tpn_tm,18.756948,-5.489287,-18.756948,5.489287,0.000000,0.000000
triplex_l52,3.805177,-1.131612,0.000000,0.000000,0.000000,0.000000
l52_tpn_tm,37.690090,-10.830148,-37.690090,10.830148,0.000000,0.000000
triplex_l53,3.791631,-1.140884,0.000000,0.000000,0.000000,0.000000
l53_tpn_tm,37.557174,-10.923019,-37.557174,10.923019,0.000000,0.000000
triplex_l55,1.913525,-0.598035,0.000000,0.000000,0.000000,0.000000
l55_tpn_tm,18.763479,-5.490441,-18.763479,5.490441,0.000000,0.000000
triplex_l56,0.000000,0.000000,-1.478154,-1.416992,0.000000,0.000000
l56_tpn_tm,-14.159803,-14.078779,14.159803,14.078779,0.000000,0.000000
triplex_l58,0.000000,0.000000,-1.478481,-1.410626,0.000000,0.000000
l58_tpn_tm,-14.164085,-14.016762,14.164085,14.016762,0.000000,0.000000
triplex_l59,0.000000,0.000000,-1.478672,-1.410743,0.000000,0.000000
l59_tpn_tm,-14.166029,-14.017962,14.166029,14.017962,0.000000,0.000000
triplex_l60,1.879405,-0.626119,0.000000,0.000000,0.000000,0.000000
l60_tpn_tm,18.435951,-5.770522,-18.435951,5.770522,0.000000,0.000000
triplex_l62,0.000000,0.000000,0.000000,0.000000,-0.953165,3.842366
l62_tpn_tm,-9.766159,37.867136,9.766159,-37.867136,0.000000,0.000000
triplex_l63,3.713629,-1.199200,0.000000,0.000000,0.000000,0.000000
l63_tpn_tm,36.792217,-11.506429,-36.792217,11.506429,0.000000,0.000000
triplex_l64,0.000000,0.000000,-5.282994,-5.121578,0.000000,0.000000
l64_tpn_tm,-52.241132,-51.157694,52.241132,51.157694,0.000000,0.000000
triplex_l66,0.000000,0.000000,0.000000,0.000000,-1.773544,7.022569
l66_tpn_tm,-17.975081,69.695050,17.975081,-69.695050,0.000000,0.000000
triplex_l68,1.915637,-0.650291,0.000000,0.000000,0.000000,0.000000
l68_tpn_tm,18.793334,-5.999515,-18.793334,5.999515,0.000000,0.000000
triplex_l69,3.785805,-1.249755,0.000000,0.000000,0.000000,0.000000
l69_tpn_tm,37.509477,-11.998839,-37.509477,11.998839,0.000000,0.000000
triplex_l70,1.914156,-0.650561,0.000000,0.000000,0.000000,0.000000
l70_tpn_tm,18.778918,-6.002390,-18.778918,6.002390,0.000000,0.000000
triplex_l71,3.784050,-1.250150,0.000000,0.000000,0.000000,0.000000
l71_tpn_tm,37.492179,-12.002899,-37.492179,12.002899,0.000000,0.000000
triplex_l73,0.000000,0.000000,0.000000,0.000000,-0.959570,3.921051
l73_tpn_tm,-9.836777,38.643316,9.836777,-38.643316,0.000000,0.000000
triplex_l74,0.000000,0.000000,0.000000,0.000000,-0.958378,3.919817
l74_tpn_tm,-9.824896,38.631235,9.824896,-38.631235,0.000000,0.000000
triplex_l75,0.000000,0.000000,0.000000,0.000000,-0.958154,3.920500
l75_tpn_tm,-9.822673,38.638220,9.822673,-38.638220,0.000000,0.000000
triplex_l77,0.000000,0.000000,-2.962938,-2.838668,0.000000,0.000000
l77_tpn_tm,-29.007610,-28.310421,29.007610,28.310421,0.000000,0.000000
triplex_l79,3.777918,-1.263664,0.000000,0.000000,0.000000,0.000000
l79_tpn_tm,37.432860,-12.136973,-37.432860,12.136973,0.000000,0.000000
triplex_l80,0.000000,0.000000,-2.962758,-2.838329,0.000000,0.000000
l80_tpn_tm,-29.005878,-28.307060,29.005878,28.307060,0.000000,0.000000
triplex_l82,3.778263,-1.264710,0.000000,0.000000,0.000000,0.000000
l82_tpn_tm,37.436390,-12.147302,-37.436390,12.147302,0.000000,0.000000
triplex_l83,0.000000,0.000000,0.000000,0.000000,-0.465980,1.990904
l83_tpn_tm,-4.897669,19.328406,4.897669,-19.328406,0.000000,0.000000
triplex_l84,0.000000,0.000000,0.000000,0.000000,-0.465186,1.990018
l84_tpn_tm,-4.889778,19.319872,4.889778,-19.319872,0.000000,0.000000
triplex_l85,0.000000,0.000000,0.000000,0.000000,-0.950342,3.915164
l85_tpn_tm,-9.745045,38.586163,9.745045,-38.586163,0.000000,0.000000
triplex_l86,0.000000,0.000000,-1.512871,-1.428594,0.000000,0.000000
l86_tpn_tm,-14.496052,-14.198049,14.496052,14.198049,0.000000,0.000000
triplex_l87,0.000000,0.000000,-2.956446,-2.844778,0.000000,0.000000
l87_tpn_tm,-28.942772,-28.370140,28.942772,28.370140,0.000000,0.000000
triplex_l88,3.758974,-1.294532,0.000000,0.000000,0.000000,0.000000
l88_tpn_tm,37.248567,-12.443620,-37.248567,12.443620,0.000000,0.000000
triplex_l90,0.000000,0.000000,-2.953364,-2.844238,0.000000,0.000000
l90_tpn_tm,-28.912436,-28.364539,28.912436,28.364539,0.000000,0.000000
triplex_l92,0.000000,0.000000,0.000000,0.000000,-0.902753,3.892136
l92_tpn_tm,-9.272809,38.363188,9.272809,-38.363188,0.000000,0.000000
triplex_l94,3.773564,-1.291572,0.000000,0.000000,0.000000,0.000000
l94_tpn_tm,37.392495,-12.413146,-37.392495,12.413146,0.000000,0.000000
triplex_l95,0.000000,0.000000,-1.509115,-1.429529,0.000000,0.000000
l95_tpn_tm,-14.459249,-14.206493,14.459249,14.206493,0.000000,0.000000
triplex_l96,0.000000,0.000000,-1.509183,-1.429524,0.000000,0.000000
l96_tpn_tm,-14.459957,-14.206472,14.459957,14.206472,0.000000,0.000000
triplex_l98,3.782430,-1.253728,0.000000,0.000000,0.000000,0.000000
l98_tpn_tm,37.476646,-12.038548,-37.476646,12.038548,0.000000,0.000000
triplex_l99,0.000000,0.000000,-2.972307,-2.834994,0.000000,0.000000
l99_tpn_tm,-29.100304,-28.274936,29.100304,28.274936,0.000000,0.000000
triplex_l100,0.000000,0.000000,0.000000,0.000000,-0.971934,3.929253
l100_tpn_tm,-9.959602,38.723373,9.959602,-38.723373,0.000000,0.000000
triplex_l102,0.000000,0.000000,0.000000,0.000000,-0.477415,1.996582
l102_tpn_tm,-5.010181,19.381699,5.010181,-19.381699,0.000000,0.000000
triplex_l103,0.000000,0.000000,0.000000,0.000000,-0.974027,3.926888
l103_tpn_tm,-9.980107,38.699700,9.980107,-38.699700,0.000000,0.000000
triplex_l104,0.000000,0.000000,0.000000,0.000000,-0.973039,3.926288
l104_tpn_tm,-9.970263,38.693953,9.970263,-38.693953,0.000000,0.000000
triplex_l106,0.000000,0.000000,-2.982100,-2.813072,0.000000,0.000000
l106_tpn_tm,-29.199063,-28.059306,29.199063,28.059306,0.000000,0.000000
triplex_l107,0.000000,0.000000,-2.981653,-2.784632,0.000000,0.000000
l107_tpn_tm,-29.197413,-27.778370,29.197413,27.778370,0.000000,0.000000
triplex_l109,3.732596,-1.281656,0.000000,0.000000,0.000000,0.000000
l109_tpn_tm,36.986896,-12.318933,-36.986896,12.318933,0.000000,0.000000
triplex_l111,1.879053,-0.670078,0.000000,0.000000,0.000000,0.000000
l111_tpn_tm,18.440224,-6.199048,-18.440224,6.199048,0.000000,0.000000
triplex_l112,1.876210,-0.671556,0.000000,0.000000,0.000000,0.000000
l112_tpn_tm,18.412811,-6.214013,-18.412811,6.214013,0.000000,0.000000
triplex_l113,3.684737,-1.304993,0.000000,0.000000,0.000000,0.000000
l113_tpn_tm,36.516481,-12.554065,-36.516481,12.554065,0.000000,0.000000
triplex_l114,1.854658,-0.681673,0.000000,0.000000,0.000000,0.000000
l114_tpn_tm,18.204542,-6.316585,-18.204542,6.316585,0.000000,0.000000
sw13152,293.918547,-79.826440,-141.508426,-122.925441,-47.951053,188.351880
sw18135,135.779473,-30.508381,-135.005542,-65.778225,-4.871480,98.885465
sw60160,261.085878,-54.815865,-115.497069,-106.659260,-43.788098,150.265979
sw61611,0.000000,0.000000,0.000000,0.000000,0.000000,0.000000
sw97197,102.254856,-12.486405,-49.473076,-74.384304,-2.424482,9.849758
sw1491149,464.786645,-120.526549,-323.749379,-264.907810,-101.088682,390.347154
sw250251,0.000000,0.000000,0.000000,0.000000,0.000000,0.000000
sw450451,0.000000,0.000000,0.000000,0.000000,0.000000,0.000000
sw300350,0.000000,0.000000,0.000000,0.000000,0.000000,0.000000
sw95195,0.000000,0.000000,0.000000,0.000000,0.000000,0.000000
tran611610,0.000000,0.000000,0.000000,0.000000,0.000000,0.000000
reg1501491,476.406311,-123.539712,-331.843114,-271.530505,-103.615899,400.105833
reg252601,4.000055,-1.192334,0.000000,0.000000,-1.015705,4.132029
reg91401,6.104325,-1.748747,0.000000,0.000000,0.000000,0.000000
reg1606701,261.085878,-54.815865,-115.497069,-106.659260,-43.788098,150.265979
swEV6,89.227603,-7.876450,0.000000,0.000000,0.000000,0.000000
swEV5,0.000000,0.000000,-43.509323,-68.786599,0.000000,0.000000
swEV4,0.000000,0.000000,0.000000,0.000000,-38.650224,73.615890
swEV3,83.311174,-6.351917,0.000000,0.000000,0.000000,0.000000
swEV2,0.000000,0.000000,-41.418223,-70.519568,0.000000,0.000000
swEV1,0.000000,0.000000,0.000000,0.000000,-40.215615,71.663121
